#   generated by: ComplexBuild


@<TRIPOS>MOLECULE
T-4-Ma2bc
5  4
SMALL 
NO_CHARGES


@<TRIPOS>ATOM
 1 A1   0.0000    0.0000    0.0000  Au 
 2 A1    0.0000    2.4489   -1.7316  P
 3 A2    0.0000   -2.4489   -1.7316  N
 4 A3    2.4489    0.0000    1.7316  N
 5 A4   -2.4489    0.0000    1.7316  O
@<TRIPOS>BOND
 1 1  2 1 
 2 1  3 1 
 3 1  4 1 
 4 1  5 1 
M  END
